/*--------------------------------*- C++ -*----------------------------------*\
| =========                 |                                                 |
| \\      /  F ield         | OpenFOAM: The Open Source CFD Toolbox           |
|  \\    /   O peration     | Version:  v2006                                 |
|   \\  /    A nd           | Website:  www.openfoam.com                      |
|    \\/     M anipulation  |                                                 |
\*---------------------------------------------------------------------------*/
FoamFile
{
    version     2.0;
    format      ascii;
    class       volScalarField;
    location    "0";
    object      epsilon;
}
// * * * * * * * * * * * * * * * * * * * * * * * * * * * * * * * * * * * * * //

dimensions      [0 0 -1 0 0 0 0];

internalField   uniform 2000;

boundaryField
{
    inlet
    {
        type            turbulentMixingLengthFrequencyInlet;
        mixingLength    2000;       // 1cm - half channel height
        value           $internalField;
    }

    outlet
    {
        type            inletOutlet;
        inletValue      $internalField;
        value           $internalField;
    }

    symmetryLine
    {
        type            symmetryPlane;
    }

    walls
    {
        type            omegaWallFunction;
        value           $internalField;
    }

    rightWall
    {
        type            inletOutlet;
        inletValue      $internalField;
        value           $internalField;
        //type            omegaWallFunction;
        //value           $internalField;
    }

    defaultFaces
    {
        type            empty;
    }
}


// ************************************************************************* //
