/*--------------------------------*- C++ -*----------------------------------*\
| =========                 |                                                 |
| \\      /  F ield         | OpenFOAM: The Open Source CFD Toolbox           |
|  \\    /   O peration     | Version:  v2006                                 |
|   \\  /    A nd           | Website:  www.openfoam.com                      |
|    \\/     M anipulation  |                                                 |
\*---------------------------------------------------------------------------*/
FoamFile
{
    version     2.0;
    format      ascii;
    class       polyBoundaryMesh;
    location    "constant/polyMesh";
    object      boundary;
}
// * * * * * * * * * * * * * * * * * * * * * * * * * * * * * * * * * * * * * //

7
(
    bottomEmptyFaces
    {
        type            empty;
        inGroups        1(empty);
        nFaces          10108;
        startFace       19982;
    }
    topEmptyFaces
    {
        type            empty;
        inGroups        1(empty);
        nFaces          10108;
        startFace       30090;
    }
    inlet
    {
        type            patch;
        nFaces          70;
        startFace       40198;
    }
    outlet
    {
        type            patch;
        nFaces          35;
        startFace       40268;
    }
    walls
    {
        type            wall;
        inGroups        1(wall);
        nFaces          681;
        startFace       40303;
    }
    rightWall
    {
        type            wall;
        inGroups        1(wall);
        nFaces          30;
        startFace       40984;
    }
    symmetryLine
    {
        type            symmetryPlane;
        inGroups        1(symmetryPlane);
        nFaces          140;
        startFace       41014;
    }
)

// ************************************************************************* //
