/*--------------------------------*- C++ -*----------------------------------*\
| =========                 |                                                 |
| \\      /  F ield         | OpenFOAM: The Open Source CFD Toolbox           |
|  \\    /   O peration     | Version:  v2006                                 |
|   \\  /    A nd           | Website:  www.openfoam.com                      |
|    \\/     M anipulation  |                                                 |
\*---------------------------------------------------------------------------*/
FoamFile
{
    version     2.0;
    format      ascii;
    class       polyBoundaryMesh;
    location    "constant/polyMesh";
    object      boundary;
}
// * * * * * * * * * * * * * * * * * * * * * * * * * * * * * * * * * * * * * //

7
(
    bottomEmptyFaces
    {
        type            empty;
        inGroups        1(empty);
        nFaces          35105;
        startFace       69756;
    }
    topEmptyFaces
    {
        type            empty;
        inGroups        1(empty);
        nFaces          35105;
        startFace       104861;
    }
    inlet
    {
        type            patch;
        nFaces          134;
        startFace       139966;
    }
    outlet
    {
        type            patch;
        nFaces          62;
        startFace       140100;
    }
    walls
    {
        type            wall;
        inGroups        1(wall);
        nFaces          1360;
        startFace       140162;
    }
    rightWall
    {
        type            wall;
        inGroups        1(wall);
        nFaces          53;
        startFace       141522;
    }
    symmetryLine
    {
        type            symmetryPlane;
        inGroups        1(symmetryPlane);
        nFaces          280;
        startFace       141575;
    }
)

// ************************************************************************* //
