/*--------------------------------*- C++ -*----------------------------------*\
| =========                 |                                                 |
| \\      /  F ield         | OpenFOAM: The Open Source CFD Toolbox           |
|  \\    /   O peration     | Version:  v2006                                 |
|   \\  /    A nd           | Website:  www.openfoam.com                      |
|    \\/     M anipulation  |                                                 |
\*---------------------------------------------------------------------------*/
FoamFile
{
    version     2.0;
    format      ascii;
    class       polyBoundaryMesh;
    location    "constant/polyMesh";
    object      boundary;
}
// * * * * * * * * * * * * * * * * * * * * * * * * * * * * * * * * * * * * * //

7
(
    bottomEmptyFaces
    {
        type            empty;
        inGroups        1(empty);
        nFaces          23013;
        startFace       45630;
    }
    topEmptyFaces
    {
        type            empty;
        inGroups        1(empty);
        nFaces          23013;
        startFace       68643;
    }
    inlet
    {
        type            patch;
        nFaces          121;
        startFace       91656;
    }
    outlet
    {
        type            patch;
        nFaces          36;
        startFace       91777;
    }
    walls
    {
        type            wall;
        inGroups        1(wall);
        nFaces          1427;
        startFace       91813;
    }
    rightWall
    {
        type            wall;
        inGroups        1(wall);
        nFaces          25;
        startFace       93240;
    }
    symmetryLine
    {
        type            symmetryPlane;
        inGroups        1(symmetryPlane);
        nFaces          216;
        startFace       93265;
    }
)

// ************************************************************************* //
