/*--------------------------------*- C++ -*----------------------------------*\
| =========                 |                                                 |
| \\      /  F ield         | OpenFOAM: The Open Source CFD Toolbox           |
|  \\    /   O peration     | Version:  v2006                                 |
|   \\  /    A nd           | Website:  www.openfoam.com                      |
|    \\/     M anipulation  |                                                 |
\*---------------------------------------------------------------------------*/
FoamFile
{
    version     2.0;
    format      ascii;
    class       polyBoundaryMesh;
    location    "constant/polyMesh";
    object      boundary;
}
// * * * * * * * * * * * * * * * * * * * * * * * * * * * * * * * * * * * * * //

7
(
    bottomEmptyFaces
    {
        type            empty;
        inGroups        1(empty);
        nFaces          24416;
        startFace       48460;
    }
    topEmptyFaces
    {
        type            empty;
        inGroups        1(empty);
        nFaces          24416;
        startFace       72876;
    }
    inlet
    {
        type            patch;
        nFaces          108;
        startFace       97292;
    }
    outlet
    {
        type            patch;
        nFaces          60;
        startFace       97400;
    }
    walls
    {
        type            wall;
        inGroups        1(wall);
        nFaces          988;
        startFace       97460;
    }
    rightWall
    {
        type            wall;
        inGroups        1(wall);
        nFaces          55;
        startFace       98448;
    }
    symmetryLine
    {
        type            symmetryPlane;
        inGroups        1(symmetryPlane);
        nFaces          242;
        startFace       98503;
    }
)

// ************************************************************************* //
