/*--------------------------------*- C++ -*----------------------------------*\
| =========                 |                                                 |
| \\      /  F ield         | OpenFOAM: The Open Source CFD Toolbox           |
|  \\    /   O peration     | Version:  v2006                                 |
|   \\  /    A nd           | Website:  www.openfoam.com                      |
|    \\/     M anipulation  |                                                 |
\*---------------------------------------------------------------------------*/
FoamFile
{
    version     2.0;
    format      ascii;
    class       polyBoundaryMesh;
    location    "constant/polyMesh";
    object      boundary;
}
// * * * * * * * * * * * * * * * * * * * * * * * * * * * * * * * * * * * * * //

7
(
    bottomEmptyFaces
    {
        type            empty;
        inGroups        1(empty);
        nFaces          9148;
        startFace       18081;
    }
    topEmptyFaces
    {
        type            empty;
        inGroups        1(empty);
        nFaces          9148;
        startFace       27229;
    }
    inlet
    {
        type            patch;
        nFaces          70;
        startFace       36377;
    }
    outlet
    {
        type            patch;
        nFaces          35;
        startFace       36447;
    }
    walls
    {
        type            wall;
        inGroups        1(wall);
        nFaces          599;
        startFace       36482;
    }
    rightWall
    {
        type            wall;
        inGroups        1(wall);
        nFaces          30;
        startFace       37081;
    }
    symmetryLine
    {
        type            symmetryPlane;
        inGroups        1(symmetryPlane);
        nFaces          128;
        startFace       37111;
    }
)

// ************************************************************************* //
