/*--------------------------------*- C++ -*----------------------------------*\
| =========                 |                                                 |
| \\      /  F ield         | OpenFOAM: The Open Source CFD Toolbox           |
|  \\    /   O peration     | Version:  v2006                                 |
|   \\  /    A nd           | Website:  www.openfoam.com                      |
|    \\/     M anipulation  |                                                 |
\*---------------------------------------------------------------------------*/
FoamFile
{
    version     2.0;
    format      ascii;
    class       polyBoundaryMesh;
    location    "constant/polyMesh";
    object      boundary;
}
// * * * * * * * * * * * * * * * * * * * * * * * * * * * * * * * * * * * * * //

7
(
    bottomEmptyFaces
    {
        type            empty;
        inGroups        1(empty);
        nFaces          16277;
        startFace       32242;
    }
    topEmptyFaces
    {
        type            empty;
        inGroups        1(empty);
        nFaces          16277;
        startFace       48519;
    }
    inlet
    {
        type            patch;
        nFaces          95;
        startFace       64796;
    }
    outlet
    {
        type            patch;
        nFaces          36;
        startFace       64891;
    }
    walls
    {
        type            wall;
        inGroups        1(wall);
        nFaces          1055;
        startFace       64927;
    }
    rightWall
    {
        type            wall;
        inGroups        1(wall);
        nFaces          28;
        startFace       65982;
    }
    symmetryLine
    {
        type            symmetryPlane;
        inGroups        1(symmetryPlane);
        nFaces          178;
        startFace       66010;
    }
)

// ************************************************************************* //
