/*--------------------------------*- C++ -*----------------------------------*\
| =========                 |                                                 |
| \\      /  F ield         | OpenFOAM: The Open Source CFD Toolbox           |
|  \\    /   O peration     | Version:  v2006                                 |
|   \\  /    A nd           | Website:  www.openfoam.com                      |
|    \\/     M anipulation  |                                                 |
\*---------------------------------------------------------------------------*/
FoamFile
{
    version     2.0;
    format      ascii;
    class       polyBoundaryMesh;
    location    "constant/polyMesh";
    object      boundary;
}
// * * * * * * * * * * * * * * * * * * * * * * * * * * * * * * * * * * * * * //

7
(
    bottomEmptyFaces
    {
        type            empty;
        inGroups        1(empty);
        nFaces          64010;
        startFace       127415;
    }
    topEmptyFaces
    {
        type            empty;
        inGroups        1(empty);
        nFaces          64010;
        startFace       191425;
    }
    inlet
    {
        type            patch;
        nFaces          188;
        startFace       255435;
    }
    outlet
    {
        type            patch;
        nFaces          113;
        startFace       255623;
    }
    walls
    {
        type            wall;
        inGroups        1(wall);
        nFaces          2504;
        startFace       255736;
    }
    rightWall
    {
        type            wall;
        inGroups        1(wall);
        nFaces          85;
        startFace       258240;
    }
    symmetryLine
    {
        type            symmetryPlane;
        inGroups        1(symmetryPlane);
        nFaces          364;
        startFace       258325;
    }
)

// ************************************************************************* //
